tests/data/power_flow/floating-ground-edge-case/non-floating-ground-no-error/wye-wye/asym_output.json
{
  "version": "1.0",
  "type": "asym_output",
  "is_batch": false,
  "attributes": {},
  "data": {
    "node": [
      {"id": 1, "energized": 1, "u_pu": [0.99999999914568205, 0.99999999968883047, 0.99999999998850797], "u": [5773.5026869638505, 5773.5026900997191, 5773.5026918299081], "u_angle": [1.4071359533789161e-10, -2.0943951015928572, 2.0943951023933409], "p": [168198.1372297316, -115298.15571070107, 2674.4133664322471], "q": [234531.16139748937, 261984.8336187799, 2743.0061157125119]},
      {"id": 2, "energized": 1, "u_pu": [0.0049003381328730812, 0.0049410195971993642, 1.4866214842473346], "u": [0.28292115401344614, 0.28526989945142689, 85.830131411327969], "u_angle": [-0.16318544655958905, 2.9887484324078768, 2.08719189099924], "p": [-1000.0000000000001, -1000.0000000000001, -4000.0000000000277], "q": [-999.99999999999977, -999.99999999999943, -4000.0000000000277]}
    ],
    "transformer": [
      {"id": 4, "energized": 1, "loading": 5.786742395132177, "p_from": [168198.1372297316, -115298.15571070107, 2674.4133664322471], "q_from": [234531.16139748937, 261984.8336187799, 2743.0061157125119], "i_from": [49.988642462962069, 49.577127127598949, 0.66354885439713573], "s_from": [288609.56157758675, 286233.67683860834, 3831.0010970225144], "p_to": [-1000.0000000000001, -1000.0000000000001, -4000.0000000000277], "q_to": [-999.99999999999977, -999.99999999999943, -4000.0000000000277], "i_to": [4998.6137208597802, 4957.4580602181404, 65.907556664253477], "s_to": [1414.2135623730951, 1414.2135623730946, 5656.8542494924186]}
    ],
    "source": [
      {"id": 3, "energized": 1, "p": [168198.1372297316, -115298.15571070106, 2674.4133664322471], "q": [234531.16139748937, 261984.8336187799, 2743.0061157125115], "i": [49.988642462962069, 49.577127127598956, 0.66354885439713562], "s": [288609.56157758675, 286233.67683860834, 3831.0010970225144], "pf": [0.5827878200234714, -0.40281128686234724, 0.69809778141562617]}
    ],
    "asym_load": [
      {"id": 21, "energized": 1, "p": [1000, 1000, 4000], "q": [1000, 1000, 4000], "i": [4998.6137208597793, 4957.4580602181422, 65.907556664253008], "s": [1414.2135623730949, 1414.2135623730949, 5656.8542494923795], "pf": [0.70710678118654757, 0.70710678118654757, 0.70710678118654757]}
    ]
  }
}